*Heading
** Job name: Job-1 Model name: BirdStrike
** Generated by: Abaqus/CAE 2020
*Preprint, echo=NO, model=NO, history=NO, contact=NO
**
** PARTS
**
*Part, name=Aluminium
*Node
      1,        -500.,        -500.,           0.
      2,  -485.074615,        -500.,           0.
      3,  -470.149261,        -500.,           0.
      4,  -455.223877,        -500.,           0.
      5,  -440.298492,        -500.,           0.
      6,  -425.373138,        -500.,           0.
      7,  -410.447754,        -500.,           0.
      8,    -395.5224,        -500.,           0.
      9,  -380.597015,        -500.,           0.
     10,  -365.671631,        -500.,           0.
     11,  -350.746277,        -500.,           0.
     12,  -335.820892,        -500.,           0.
     13,  -320.895508,        -500.,           0.
     14,  -305.970154,        -500.,           0.
     15,  -291.044769,        -500.,           0.
     16,  -276.119415,        -500.,           0.
     17,  -261.194031,        -500.,           0.
     18,  -246.268661,        -500.,           0.
     19,  -231.343277,        -500.,           0.
     20,  -216.417908,        -500.,           0.
** ... 4604 like lines cut
*Element, type=S4R
   1,    1,    2,   70,   69
   2,    2,    3,   71,   70
   3,    3,    4,   72,   71
   4,    4,    5,   73,   72
   5,    5,    6,   74,   73
   6,    6,    7,   75,   74
   7,    7,    8,   76,   75
   8,    8,    9,   77,   76
   9,    9,   10,   78,   77
  10,   10,   11,   79,   78
  11,   11,   12,   80,   79
  12,   12,   13,   81,   80
  13,   13,   14,   82,   81
  14,   14,   15,   83,   82
  15,   15,   16,   84,   83
  16,   16,   17,   85,   84
  17,   17,   18,   86,   85
  18,   18,   19,   87,   86
  19,   19,   20,   88,   87
  20,   20,   21,   89,   88
** ... 4469 like lines cut
*Nset, nset=Set-1, generate
    1,  4624,     1
*Elset, elset=Set-1, generate
    1,  4489,     1
** Section: Al
*Shell Section, elset=Set-1, material=Al
3.5, 5
*End Part
**  
*Part, name=Bird
*Node
      1,          80.,           0.,           0.
      2,         -80.,           0.,           0.
      3,         -80.,         250.,           0.
      4,          80.,         250.,           0.
      5,   70.5882339,           0.,           0.
      6,   61.1764717,           0.,           0.
      7,   51.7647057,           0.,           0.
      8,   42.3529396,           0.,           0.
      9,   32.9411774,           0.,           0.
     10,   23.5294113,           0.,           0.
     11,   14.1176472,           0.,           0.
     12,   4.70588255,           0.,           0.
     13,  -4.70588255,           0.,           0.
     14,  -14.1176472,           0.,           0.
     15,  -23.5294113,           0.,           0.
     16,  -32.9411774,           0.,           0.
     17,  -42.3529396,           0.,           0.
     18,  -51.7647057,           0.,           0.
     19,  -61.1764717,           0.,           0.
     20,  -70.5882339,           0.,           0.
** ... 7624 like lines cut
*Element, type=C3D8R
   1,  250,  200,  225,  236, 2242, 2192, 2217, 2228
   2,  182,   13,   12,  194, 2174,  991,  990, 2186
   3,   39,   38,  201,  199,  412,  413, 2193, 2191
   4,   10,  190,  189,   11,  988, 2182, 2181,  989
   5,  245,  260,  262,  241, 2237, 2252, 2254, 2233
   6,  190,   10,    9,  191, 2182,  988,  987, 2183
   7,  274,  269,  271,  277, 2266, 2261, 2263, 2269
   8,    8,  192,  191,    9,  986, 2184, 2183,  987
   9,  192,    8,    7,  193, 2184,  986,  985, 2185
  10,  193,    7,    6,  181, 2185,  985,  984, 2173
  11,    5,  195,  181,    6,  983, 2187, 2173,  984
  12,  234,  211,  208,  219, 2226, 2203, 2200, 2211
  13,  209,  208,   35,   34, 2201, 2200,  416,  417
  14,  183,   14,   13,  182, 2175,  992,  991, 2174
  15,   33,   32,  205,  204,  418,  419, 2197, 2196
  16,  185,   16,   15,  184, 2177,  994,  993, 2176
  17,  203,  212,   31,   30, 2195, 2204,  420,  421
  18,   29,   28,  213,  198,  422,  423, 2205, 2190
  19,   14,  183,  184,   15,  992, 2175, 2176,  993
  20,  207,  214,   27,   26, 2199, 2206,  424,  425
** ... 6680 like lines cut
*Nset, nset=Set-1, generate
    1,  7644,     1
*Elset, elset=Set-1, generate
    1,  6700,     1
*Nset, nset=Bird, generate
    1,  7644,     1
*Elset, elset=Bird, generate
    1,  6700,     1
** Section: water
*Solid Section, elset=Set-1, controls=EC-1, material=water
,
*End Part
**  
**
** ASSEMBLY
**
*Assembly, name=Assembly
**  
*Instance, name=Aluminium-1, part=Aluminium
*End Instance
**  
*Instance, name=Bird-1, part=Bird
          0.,           0.,           7.
          0.,           0.,           7., 1.00000001268805,           0.,           7., 89.9999992730282
*End Instance
**  
*Nset, nset=Set-1, instance=Aluminium-1
    1,    2,    3,    4,    5,    6,    7,    8,    9,   10,   11,   12,   13,   14,   15,   16
   17,   18,   19,   20,   21,   22,   23,   24,   25,   26,   27,   28,   29,   30,   31,   32
   33,   34,   35,   36,   37,   38,   39,   40,   41,   42,   43,   44,   45,   46,   47,   48
   49,   50,   51,   52,   53,   54,   55,   56,   57,   58,   59,   60,   61,   62,   63,   64
   65,   66,   67,   68,   69,  136,  137,  204,  205,  272,  273,  340,  341,  408,  409,  476
  477,  544,  545,  612,  613,  680,  681,  748,  749,  816,  817,  884,  885,  952,  953, 1020
 1021, 1088, 1089, 1156, 1157, 1224, 1225, 1292, 1293, 1360, 1361, 1428, 1429, 1496, 1497, 1564
 1565, 1632, 1633, 1700, 1701, 1768, 1769, 1836, 1837, 1904, 1905, 1972, 1973, 2040, 2041, 2108
 2109, 2176, 2177, 2244, 2245, 2312, 2313, 2380, 2381, 2448, 2449, 2516, 2517, 2584, 2585, 2652
 2653, 2720, 2721, 2788, 2789, 2856, 2857, 2924, 2925, 2992, 2993, 3060, 3061, 3128, 3129, 3196
 3197, 3264, 3265, 3332, 3333, 3400, 3401, 3468, 3469, 3536, 3537, 3604, 3605, 3672, 3673, 3740
 3741, 3808, 3809, 3876, 3877, 3944, 3945, 4012, 4013, 4080, 4081, 4148, 4149, 4216, 4217, 4284
 4285, 4352, 4353, 4420, 4421, 4488, 4489, 4556, 4557, 4558, 4559, 4560, 4561, 4562, 4563, 4564
 4565, 4566, 4567, 4568, 4569, 4570, 4571, 4572, 4573, 4574, 4575, 4576, 4577, 4578, 4579, 4580
 4581, 4582, 4583, 4584, 4585, 4586, 4587, 4588, 4589, 4590, 4591, 4592, 4593, 4594, 4595, 4596
 4597, 4598, 4599, 4600, 4601, 4602, 4603, 4604, 4605, 4606, 4607, 4608, 4609, 4610, 4611, 4612
 4613, 4614, 4615, 4616, 4617, 4618, 4619, 4620, 4621, 4622, 4623, 4624
*Elset, elset=Set-1, instance=Aluminium-1
    1,    2,    3,    4,    5,    6,    7,    8,    9,   10,   11,   12,   13,   14,   15,   16
   17,   18,   19,   20,   21,   22,   23,   24,   25,   26,   27,   28,   29,   30,   31,   32
   33,   34,   35,   36,   37,   38,   39,   40,   41,   42,   43,   44,   45,   46,   47,   48
   49,   50,   51,   52,   53,   54,   55,   56,   57,   58,   59,   60,   61,   62,   63,   64
   65,   66,   67,   68,  134,  135,  201,  202,  268,  269,  335,  336,  402,  403,  469,  470
  536,  537,  603,  604,  670,  671,  737,  738,  804,  805,  871,  872,  938,  939, 1005, 1006
 1072, 1073, 1139, 1140, 1206, 1207, 1273, 1274, 1340, 1341, 1407, 1408, 1474, 1475, 1541, 1542
 1608, 1609, 1675, 1676, 1742, 1743, 1809, 1810, 1876, 1877, 1943, 1944, 2010, 2011, 2077, 2078
 2144, 2145, 2211, 2212, 2278, 2279, 2345, 2346, 2412, 2413, 2479, 2480, 2546, 2547, 2613, 2614
 2680, 2681, 2747, 2748, 2814, 2815, 2881, 2882, 2948, 2949, 3015, 3016, 3082, 3083, 3149, 3150
 3216, 3217, 3283, 3284, 3350, 3351, 3417, 3418, 3484, 3485, 3551, 3552, 3618, 3619, 3685, 3686
 3752, 3753, 3819, 3820, 3886, 3887, 3953, 3954, 4020, 4021, 4087, 4088, 4154, 4155, 4221, 4222
 4288, 4289, 4355, 4356, 4422, 4423, 4424, 4425, 4426, 4427, 4428, 4429, 4430, 4431, 4432, 4433
 4434, 4435, 4436, 4437, 4438, 4439, 4440, 4441, 4442, 4443, 4444, 4445, 4446, 4447, 4448, 4449
 4450, 4451, 4452, 4453, 4454, 4455, 4456, 4457, 4458, 4459, 4460, 4461, 4462, 4463, 4464, 4465
 4466, 4467, 4468, 4469, 4470, 4471, 4472, 4473, 4474, 4475, 4476, 4477, 4478, 4479, 4480, 4481
 4482, 4483, 4484, 4485, 4486, 4487, 4488, 4489
*End Assembly
** 
** ELEMENT CONTROLS
** 
*Section Controls, name=EC-1, ELEMENT CONVERSION=YES, CONVERSION CRITERION=TIME, KERNEL=CUBIC
1., 1., 1.


1, 0.
** 
** MATERIALS
** 
*Material, name=Al
*Density
 2.77e-09,
*Elastic
73100., 0.33
*Plastic
170.,   0.
340., 0.01
*Material, name=water
*Density
 9.4e-11,
*Eos, type=USUP
 1.45e+06,0.,0.
*Viscosity
 1e-09,
** 
** INTERACTION PROPERTIES
** 
*Surface Interaction, name=IntProp-1
*Friction
0.,
** 
** BOUNDARY CONDITIONS
** 
** Name: BC-1 Type: Symmetry/Antisymmetry/Encastre
*Boundary
Set-1, ENCASTRE
** 
** PREDEFINED FIELDS
** 
** Name: initial velocity   Type: Velocity
*Initial Conditions, type=VELOCITY
Bird-1.Set-1, 1, 0.
Bird-1.Set-1, 2, 0.
Bird-1.Set-1, 3, -100000.
** 
** INTERACTIONS
** 
** Interaction: Int-1
*Contact, op=NEW
*Contact Inclusions, ALL EXTERIOR
*Contact Property Assignment
 ,  , IntProp-1
** ----------------------------------------------------------------
** 
** STEP: Step-1
** 
*Step, name=Step-1, nlgeom=YES
Bird Strike
*Dynamic, Explicit
, 0.01
*Bulk Viscosity
0.06, 1.2
** 
** OUTPUT REQUESTS
** 
*Restart, write, number interval=1, time marks=NO
** 
** FIELD OUTPUT: F-Output-1
** 
*Output, field, variable=PRESELECT
** 
** HISTORY OUTPUT: H-Output-1
** 
*Output, history, variable=PRESELECT
*End Step
